Circuit: * C:\Users\Kunal Keshan\OneDrive\Desktop\College\ECE\Semester 4\Courses\Analog Electronic Circuits\Lab\LT Spice\Draft3.asc


Date: Fri May 20 10:02:04 2022
Total elapsed time: 0.049 seconds.

tnom = 27
temp = 27
method = trap
totiter = 116
traniter = 0
tranpoints = 0
accept = 0
rejected = 0
matrix size = 17
fillins = 6
solver = Normal
Matrix Compiler1: 1.21 KB object code size  0.2/0.1/[0.1]
Matrix Compiler2: 1.48 KB object code size  0.1/0.1/[0.1]

