Circuit: * C:\Users\Kunal Keshan\OneDrive\Desktop\College\ECE\Semester 4\Courses\Analog Electronic Circuits\Lab\LT Spice\Experiment 2 - MOSFET CS Amplifier w Voltage-Series Feedback.asc

Direct Newton iteration for .op point succeeded.

Date: Tue Mar 22 10:40:49 2022
Total elapsed time: 0.050 seconds.

tnom = 27
temp = 27
method = trap
totiter = 11
traniter = 0
tranpoints = 0
accept = 0
rejected = 0
matrix size = 12
fillins = 11
solver = Normal
Matrix Compiler1:      64 opcodes
Matrix Compiler2: 1.11 KB object code size
