Circuit: * C:\Users\Kunal Keshan\OneDrive\Desktop\College\ECE\Semester 4\Courses\Analog Electronic Circuits\Lab\LT Spice\Experiment 6 - Basic BJT Differential Pair.asc

Direct Newton iteration for .op point succeeded.

Date: Wed Jun 08 17:00:44 2022
Total elapsed time: 0.029 seconds.

tnom = 27
temp = 27
method = trap
totiter = 7
traniter = 0
tranpoints = 0
accept = 0
rejected = 0
matrix size = 19
fillins = 0
solver = Normal
Matrix Compiler1:      56 opcodes
Matrix Compiler2: 1.44 KB object code size
