Circuit: * C:\Users\Kunal Keshan\OneDrive\Desktop\College\ECE\Semester 4\Courses\Analog Electronic Circuits\Lab\LT Spice\Draft1.asc

WARNING: Node VOUT is floating.

Direct Newton iteration for .op point succeeded.

Date: Tue May 03 16:49:04 2022
Total elapsed time: 0.151 seconds.

tnom = 27
temp = 27
method = modified trap
totiter = 10642
traniter = 10636
tranpoints = 4051
accept = 2882
rejected = 1169
matrix size = 10
fillins = 4
solver = Normal
Matrix Compiler1: 818 bytes object code size  0.2/0.1/[0.1]
Matrix Compiler2: off  [0.1]/0.1/0.1

