Circuit: * C:\Users\Kunal Keshan\OneDrive\Desktop\College\ECE\Semester 4\Courses\Analog Electronic Circuits\Lab\LT Spice\Draft2.asc


Date: Fri May 20 09:54:31 2022
Total elapsed time: 0.062 seconds.

tnom = 27
temp = 27
method = trap
totiter = 198
traniter = 0
tranpoints = 0
accept = 0
rejected = 0
matrix size = 21
fillins = 10
solver = Normal
Matrix Compiler1: 1.86 KB object code size  0.3/0.1/[0.1]
Matrix Compiler2: 1.92 KB object code size  0.1/0.2/[0.1]

