Circuit: * C:\Users\Kunal Keshan\OneDrive\Desktop\College\ECE\Semester 4\Courses\Analog Electronic Circuits\Lab\LT Spice\Experiment 11 - CE Amplifier with Active Load using FET.asc

Direct Newton iteration for .op point succeeded.

Date: Fri May 13 10:13:58 2022
Total elapsed time: 0.062 seconds.

tnom = 27
temp = 27
method = modified trap
totiter = 842
traniter = 830
tranpoints = 416
accept = 258
rejected = 158
matrix size = 20
fillins = 3
solver = Normal
Matrix Compiler1: 1.34 KB object code size  0.3/0.1/[0.1]
Matrix Compiler2: 1.68 KB object code size  0.1/0.2/[0.1]

