Circuit: * C:\Users\Kunal Keshan\OneDrive\Desktop\College\ECE\Semester 4\Courses\Analog Electronic Circuits\Lab\LT Spice\Experiment 5 - Class C Power Amplifiers.asc

Direct Newton iteration for .op point succeeded.

Date: Sun May 15 15:52:58 2022
Total elapsed time: 0.059 seconds.

tnom = 27
temp = 27
method = trap
totiter = 6
traniter = 0
tranpoints = 0
accept = 0
rejected = 0
matrix size = 10
fillins = 1
solver = Normal
Matrix Compiler1:      30 opcodes
Matrix Compiler2: 754 bytes object code size
