Circuit: * C:\Users\Kunal Keshan\OneDrive\Desktop\College\ECE\Semester 4\Courses\Analog Electronic Circuits\Lab\LT Spice\Experiment 11 - CE Amplifier with Active Load using BJT.asc

Direct Newton iteration for .op point succeeded.

Date: Fri May 13 10:06:44 2022
Total elapsed time: 0.039 seconds.

tnom = 27
temp = 27
method = modified trap
totiter = 1575
traniter = 1564
tranpoints = 525
accept = 344
rejected = 181
matrix size = 17
fillins = 3
solver = Normal
Matrix Compiler1: 1.31 KB object code size  0.2/0.1/[0.1]
Matrix Compiler2: 1.46 KB object code size  0.1/0.1/[0.1]

