Circuit: * C:\Users\Kunal Keshan\OneDrive\Desktop\College\ECE\Semester 4\Courses\Analog Electronic Circuits\Lab\LT Spice\Experiment 3 - Multistage Cascode Amplifier.asc

Direct Newton iteration for .op point succeeded.

Date: Mon Mar 21 17:15:04 2022
Total elapsed time: 0.039 seconds.

tnom = 27
temp = 27
method = modified trap
totiter = 632
traniter = 626
tranpoints = 253
accept = 181
rejected = 72
matrix size = 16
fillins = 8
solver = Normal
Matrix Compiler1: 1.38 KB object code size  0.4/0.4/[0.1]
Matrix Compiler2: 1.41 KB object code size  0.2/0.3/[0.2]

