Circuit: * C:\Users\Kunal Keshan\OneDrive\Desktop\College\ECE\Semester 4\Courses\Analog Electronic Circuits\Lab\LT Spice\Experiment 12 - CS Amplifier with Active Load using FET.asc

Direct Newton iteration for .op point succeeded.

Date: Fri May 20 09:31:09 2022
Total elapsed time: 0.052 seconds.

tnom = 27
temp = 27
method = trap
totiter = 8
traniter = 0
tranpoints = 0
accept = 0
rejected = 0
matrix size = 9
fillins = 0
solver = Normal
Matrix Compiler1:      21 opcodes
Matrix Compiler2: 661 bytes object code size
