Circuit: * C:\Users\Kunal Keshan\OneDrive\Desktop\College\ECE\Semester 4\Courses\Analog Electronic Circuits\Lab\LT Spice\Experiment 7 - BJT Common Emitter Current Series Feedback with Feedback.asc

Direct Newton iteration for .op point succeeded.

Date: Fri Apr 01 12:14:28 2022
Total elapsed time: 0.039 seconds.

tnom = 27
temp = 27
method = trap
totiter = 6
traniter = 0
tranpoints = 0
accept = 0
rejected = 0
matrix size = 12
fillins = 0
solver = Normal
Matrix Compiler1:      36 opcodes
Matrix Compiler2: 920 bytes object code size
