Circuit: * C:\Users\Kunal Keshan\OneDrive\Desktop\College\ECE\Semester - III\Courses\Electronic Devices\Lab\LTSpice\8 Mosfet characteristics.asc


Date: Wed Nov 24 15:57:30 2021
Total elapsed time: 0.056 seconds.

tnom = 27
temp = 27
method = trap
totiter = 46
traniter = 0
tranpoints = 0
accept = 0
rejected = 0
matrix size = 4
fillins = 0
solver = Normal
Matrix Compiler1: 118 bytes object code size
Matrix Compiler2: 216 bytes object code size
