Circuit: * C:\Users\Kunal Keshan\OneDrive\Desktop\College\ECE\Semester - III\Courses\Electronic Devices\Lab\LTSpice\Shunt Voltage Regulator.asc

Direct Newton iteration for .op point succeeded.
Semiconductor Device Operating Points:
                        --- Diodes ---
Name:      d1
Model:    1n750
Id:     -4.92e-10
Vd:     -7.99e-03
Req:     3.14e+07
CAP:     1.74e-10



Date: Wed Dec 01 08:01:58 2021
Total elapsed time: 0.313 seconds.

tnom = 27
temp = 27
method = trap
totiter = 21
traniter = 0
tranpoints = 0
accept = 0
rejected = 0
matrix size = 4
fillins = 0
solver = Normal
Matrix Compiler1: 100 bytes object code size
Matrix Compiler2: 248 bytes object code size
